@<TRIPOS>MOLECULE
A:M24552
    64    69     1     0     1
SMALL
NO_CHARGES
****
Generated from the CSD

@<TRIPOS>ATOM
     1 P      -29.9490  11.6760  -8.2563   P.3       1 M24552   0.0000
     2 N1     -30.5710   6.5980 -16.9796   N.ar      1 M24552   0.0000
     3 C2     -30.8850   7.8810 -17.2366   C.ar      1 M24552   0.0000
     4 N3     -30.9680   8.8080 -16.2725   N.ar      1 M24552   0.0000
     5 C4     -30.7600   8.4780 -14.9705   C.ar      1 M24552   0.0000
     6 C5     -30.4320   7.1890 -14.6305   C.ar      1 M24552   0.0000
     7 C6     -30.3230   6.1970 -15.7145   C.ar      1 M24552   0.0000
     8 N6     -30.0150   4.8960 -15.4335   N.pl3     1 M24552   0.0000
     9 N7     -30.2800   7.1350 -13.2784   N.2       1 M24552   0.0000
    10 C8     -30.4860   8.3880 -12.8204   C.2       1 M24552   0.0000
    11 N9     -30.7910   9.1840 -13.8455   N.pl3     1 M24552   0.0000
    12 C1'    -31.0760  10.6270 -13.7645   C.3       1 M24552   0.0000
    13 O1P    -28.5000  12.1110  -8.0913   O.3       1 M24552   0.0000
    14 C2'    -32.5700  10.9110 -13.8365   C.3       1 M24552   0.0000
    15 O2'    -32.7170  12.1550 -14.5045   O.3       1 M24552   0.0000
    16 C24    -29.3110   9.0710  -8.7263   C.2       1 M24552   0.0000
    17 O25    -28.7160   9.3800  -9.7443   O.2       1 M24552   0.0000
    18 C26    -29.3490   7.6750  -8.1353   C.ar      1 M24552   0.0000
    19 C27    -29.8300   7.5370  -6.8322   C.ar      1 M24552   0.0000
    20 C28    -29.9080   6.2970  -6.2212   C.ar      1 M24552   0.0000
    21 C29    -29.4780   5.1740  -6.8952   C.ar      1 M24552   0.0000
    22 O2P    -30.0290  10.0780  -8.0063   O.3       1 M24552   0.0000
    23 C3'    -32.9830  11.1000 -12.3984   C.3       1 M24552   0.0000
    24 O3'    -34.1040  11.9960 -12.3114   O.3       1 M24552   0.0000
    25 C30    -29.0160   5.3030  -8.1843   C.ar      1 M24552   0.0000
    26 C31    -28.9310   6.5500  -8.8143   C.ar      1 M24552   0.0000
    27 C32    -28.5770   4.0720  -8.8743   C.2       1 M24552   0.0000
    28 N33    -28.1660   4.0820 -10.1373   N.2       1 M24552   0.0000
    29 O34    -27.8380   2.8190 -10.4223   O.3       1 M24552   0.0000
    30 C35    -28.0300   2.0150  -9.3783   C.2       1 M24552   0.0000
    31 N36    -28.4910   2.7990  -8.3743   N.2       1 M24552   0.0000
    32 C37    -27.8070   0.5730  -9.4063   C.ar      1 M24552   0.0000
    33 C38    -27.2860  -0.0490 -10.5173   C.ar      1 M24552   0.0000
    34 C39    -27.1230  -1.4290 -10.4873   C.ar      1 M24552   0.0000
    35 O3P    -31.0030  12.1060  -7.2902   O.2       1 M24552   0.0000
    36 C4'    -31.7240  11.6650 -11.7514   C.3       1 M24552   0.0000
    37 O4'    -30.6180  11.1190 -12.5054   O.3       1 M24552   0.0000
    38 C40    -27.5140  -2.1450  -9.3603   C.ar      1 M24552   0.0000
    39 C41    -28.0770  -1.4940  -8.2693   C.ar      1 M24552   0.0000
    40 C42    -28.2190  -0.1240  -8.3003   C.ar      1 M24552   0.0000
    41 F43    -28.7410   0.5880  -7.2922   F         1 M24552   0.0000
    42 C5'    -31.6050  11.2750 -10.2863   C.3       1 M24552   0.0000
    43 O5'    -30.3700  11.8180  -9.8033   O.3       1 M24552   0.0000
    44 H1     -31.0789   8.1770 -18.2665   H         1 M24552   0.0000
    45 H2     -29.9416   4.2181 -16.1853   H         1 M24552   0.0000
    46 H3     -29.8596   4.6074 -14.4729   H         1 M24552   0.0000
    47 H4     -30.4144   8.6991 -11.7793   H         1 M24552   0.0000
    48 H5     -30.5635  11.1487 -14.5713   H         1 M24552   0.0000
    49 H6     -27.9019  11.4315  -8.4995   H         1 M24552   0.0000
    50 H7     -33.1220  10.1095 -14.3251   H         1 M24552   0.0000
    51 H8     -33.6813  12.3813 -14.5743   H         1 M24552   0.0000
    52 H9     -30.1504   8.4225  -6.2852   H         1 M24552   0.0000
    53 H10    -30.3075   6.2092  -5.2120   H         1 M24552   0.0000
    54 H11    -29.5038   4.1977  -6.4135   H         1 M24552   0.0000
    55 H12    -33.2353  10.1395 -11.9516   H         1 M24552   0.0000
    56 H13    -34.3636  12.1100 -11.3597   H         1 M24552   0.0000
    57 H14    -28.5399   6.6307  -9.8274   H         1 M24552   0.0000
    58 H15    -27.0079   0.5262 -11.3993   H         1 M24552   0.0000
    59 H16    -26.6912  -1.9475 -11.3421   H         1 M24552   0.0000
    60 H17    -31.7247  12.7504 -11.8403   H         1 M24552   0.0000
    61 H18    -27.3776  -3.2251  -9.3329   H         1 M24552   0.0000
    62 H19    -28.4027  -2.0611  -7.3985   H         1 M24552   0.0000
    63 H20    -31.5997  10.1905 -10.1880   H         1 M24552   0.0000
    64 H21    -32.4401  11.6867  -9.7214   H         1 M24552   0.0000
@<TRIPOS>BOND
     1     2     3   ar
     2     3     4   ar
     3     4     5   ar
     4     5     6   ar
     5     2     7   ar
     6     6     7   ar
     7     7     8    1
     8     6     9    1
     9     9    10    2
    10     5    11    1
    11    10    11    1
    12    11    12    1
    13     1    13    1
    14    12    14    1
    15    14    15    1
    16    16    17    2
    17    16    18    1
    18    18    19   ar
    19    19    20   ar
    20    20    21   ar
    21     1    22    1
    22    16    22    1
    23    14    23    1
    24    23    24    1
    25    21    25   ar
    26    18    26   ar
    27    25    26   ar
    28    25    27    1
    29    27    28    2
    30    28    29    1
    31    29    30    1
    32    27    31    1
    33    30    31    2
    34    30    32    1
    35    32    33   ar
    36    33    34   ar
    37     1    35    2
    38    23    36    1
    39    12    37    1
    40    36    37    1
    41    34    38   ar
    42    38    39   ar
    43    32    40   ar
    44    39    40   ar
    45    40    41    1
    46    36    42    1
    47     1    43    1
    48    42    43    1
    49     3    44    1
    50     8    45    1
    51     8    46    1
    52    10    47    1
    53    12    48    1
    54    13    49    1
    55    14    50    1
    56    15    51    1
    57    19    52    1
    58    20    53    1
    59    21    54    1
    60    23    55    1
    61    24    56    1
    62    26    57    1
    63    33    58    1
    64    34    59    1
    65    36    60    1
    66    38    61    1
    67    39    62    1
    68    42    63    1
    69    42    64    1
@<TRIPOS>SUBSTRUCTURE
     1 M24552      1 GROUP             0 A     M24     0  
@<TRIPOS>SET
CCDC_LIGAND STATIC ATOMS
64 1 2 3 4 5 6 7 8 9 \
10 11 12 13 14 15 16 17 18 19 \
20 21 22 23 24 25 26 27 28 29 \
30 31 32 33 34 35 36 37 38 39 \
40 41 42 43 44 45 46 47 48 49 \
50 51 52 53 54 55 56 57 58 59 \
60 61 62 63 64 
